<?xml version="1.0" encoding="UTF-8"?>
<ui version="4.0">
 <class>QSwat</class>
 <widget class="QDialog" name="QSwat">
  <property name="geometry">
   <rect>
    <x>0</x>
    <y>0</y>
    <width>740</width>
    <height>635</height>
   </rect>
  </property>
  <property name="windowTitle">
   <string>QSWAT+ IGP Proyecto financiado por el PP000089</string>
  </property>
  <property name="windowIcon">
   <iconset resource="resources.qrc">
    <normaloff>:/plugins/QSWATPlus/swatplus.ico</normaloff>:/plugins/QSWATPlus/swatplus.ico</iconset>
  </property>
  <property name="whatsThis">
   <string/>
  </property>
  <property name="styleSheet">
   <string notr="true">QDialog {
    background-color: #f2f2f2;
    font-family: Helvetica, Arial, sans-serif;
    font-size: 13px;
}

QPushButton {
    background-color: #ffffff;
    border: 1px solid #cccccc;
    border-radius: 6px;
    padding: 6px 12px;
}

QPushButton:hover {
    background-color: #e6e6e6;
}

QLineEdit, QSpinBox, QComboBox {
    background-color: #ffffff;
    border: 1px solid #cccccc;
    border-radius: 4px;
    padding: 4px;
}

QCheckBox {
    padding: 2px;
}

QGroupBox {
    border: 1px solid #cccccc;
    border-radius: 6px;
    margin-top: 10px;
}

QGroupBox::title {
    subcontrol-origin: margin;
    subcontrol-position: top center;
    padding: 0 3px;
}
</string>
  </property>
  <layout class="QGridLayout" name="gridLayout_4">
   <item row="0" column="0">
    <layout class="QVBoxLayout" name="verticalLayout_5">
     <item>
      <layout class="QHBoxLayout" name="horizontalLayout">
       <item>
        <widget class="QLabel" name="label">
         <property name="maximumSize">
          <size>
           <width>16777215</width>
           <height>40</height>
          </size>
         </property>
         <property name="styleSheet">
          <string notr="true"/>
         </property>
         <property name="text">
          <string/>
         </property>
        </widget>
       </item>
       <item>
        <widget class="QLabel" name="SWATLogo">
         <property name="sizePolicy">
          <sizepolicy hsizetype="Fixed" vsizetype="Fixed">
           <horstretch>0</horstretch>
           <verstretch>0</verstretch>
          </sizepolicy>
         </property>
         <property name="maximumSize">
          <size>
           <width>40</width>
           <height>40</height>
          </size>
         </property>
         <property name="text">
          <string/>
         </property>
         <property name="pixmap">
          <pixmap resource="resources.qrc">:/plugins/QSWATPlus/QSWAT-Icon/SWAT-Logo.png</pixmap>
         </property>
         <property name="scaledContents">
          <bool>true</bool>
         </property>
        </widget>
       </item>
       <item>
        <widget class="QLabel" name="labelTitle">
         <property name="minimumSize">
          <size>
           <width>0</width>
           <height>0</height>
          </size>
         </property>
         <property name="maximumSize">
          <size>
           <width>16777215</width>
           <height>40</height>
          </size>
         </property>
         <property name="text">
          <string>&lt;html&gt;&lt;head/&gt;&lt;body&gt;&lt;p align=&quot;center&quot;&gt;&lt;span style=&quot; font-size:16pt; font-weight:600;&quot;&gt;SWAT+ IGP Platform&lt;/span&gt;&lt;/p&gt;&lt;/body&gt;&lt;/html&gt;</string>
         </property>
        </widget>
       </item>
       <item>
        <widget class="QLabel" name="label_2">
         <property name="maximumSize">
          <size>
           <width>16777215</width>
           <height>40</height>
          </size>
         </property>
         <property name="styleSheet">
          <string notr="true"/>
         </property>
         <property name="text">
          <string/>
         </property>
        </widget>
       </item>
      </layout>
     </item>
     <item>
      <widget class="QGroupBox" name="projectBox">
       <property name="minimumSize">
        <size>
         <width>0</width>
         <height>50</height>
        </size>
       </property>
       <property name="title">
        <string>Select Project</string>
       </property>
       <layout class="QGridLayout" name="gridLayout">
        <item row="0" column="0">
         <widget class="QPushButton" name="newButton">
          <property name="sizePolicy">
           <sizepolicy hsizetype="Expanding" vsizetype="Fixed">
            <horstretch>0</horstretch>
            <verstretch>0</verstretch>
           </sizepolicy>
          </property>
          <property name="text">
           <string>New Project</string>
          </property>
         </widget>
        </item>
        <item row="0" column="1">
         <widget class="QPushButton" name="existingButton">
          <property name="sizePolicy">
           <sizepolicy hsizetype="Expanding" vsizetype="Fixed">
            <horstretch>0</horstretch>
            <verstretch>0</verstretch>
           </sizepolicy>
          </property>
          <property name="text">
           <string>Existing Project</string>
          </property>
         </widget>
        </item>
       </layout>
      </widget>
     </item>
     <item>
      <widget class="QGroupBox" name="mainBox">
       <property name="sizePolicy">
        <sizepolicy hsizetype="Preferred" vsizetype="Preferred">
         <horstretch>0</horstretch>
         <verstretch>0</verstretch>
        </sizepolicy>
       </property>
       <property name="title">
        <string>Main Simulation Steps</string>
       </property>
       <layout class="QGridLayout" name="gridLayout_2">
        <item row="0" column="0">
         <layout class="QHBoxLayout" name="horizontalLayout_2">
          <item>
           <layout class="QVBoxLayout" name="verticalLayout_3">
            <item>
             <widget class="QLabel" name="delinLabel_2">
              <property name="text">
               <string>Step 1</string>
              </property>
              <property name="buddy">
               <cstring>delinButton</cstring>
              </property>
             </widget>
            </item>
            <item>
             <widget class="QLabel" name="delinLabel">
              <property name="text">
               <string>Step 2</string>
              </property>
              <property name="buddy">
               <cstring>delinButton</cstring>
              </property>
             </widget>
            </item>
            <item>
             <widget class="QLabel" name="hrusLabel">
              <property name="text">
               <string>Step 3</string>
              </property>
              <property name="buddy">
               <cstring>hrusButton</cstring>
              </property>
             </widget>
            </item>
            <item>
             <widget class="QLabel" name="editLabel">
              <property name="text">
               <string>Step 4</string>
              </property>
              <property name="buddy">
               <cstring>editButton</cstring>
              </property>
             </widget>
            </item>
            <item>
             <widget class="QLabel" name="visualiseLabel">
              <property name="text">
               <string>Step 5</string>
              </property>
              <property name="buddy">
               <cstring>visualiseButton</cstring>
              </property>
             </widget>
            </item>
            <item>
             <widget class="QLabel" name="visualiseLabel_2">
              <property name="text">
               <string>Step 6</string>
              </property>
              <property name="buddy">
               <cstring>visualiseButton</cstring>
              </property>
             </widget>
            </item>
            <item>
             <widget class="QLabel" name="visualiseLabel_3">
              <property name="text">
               <string>Step 7</string>
              </property>
              <property name="buddy">
               <cstring>visualiseButton</cstring>
              </property>
             </widget>
            </item>
            <item>
             <widget class="QLabel" name="visualiseLabel_4">
              <property name="text">
               <string>Step 8</string>
              </property>
              <property name="buddy">
               <cstring>visualiseButton</cstring>
              </property>
             </widget>
            </item>
           </layout>
          </item>
          <item>
           <layout class="QVBoxLayout" name="verticalLayout_4">
            <item>
             <widget class="QPushButton" name="donwloadclimateButton">
              <property name="sizePolicy">
               <sizepolicy hsizetype="Expanding" vsizetype="Fixed">
                <horstretch>0</horstretch>
                <verstretch>0</verstretch>
               </sizepolicy>
              </property>
              <property name="toolTip">
               <string>Click to select the DEM and delineate the watershed</string>
              </property>
              <property name="text">
               <string>Download data</string>
              </property>
             </widget>
            </item>
            <item>
             <widget class="QPushButton" name="migrateclimateButton">
              <property name="text">
               <string>Scheme Robit migrate</string>
              </property>
             </widget>
            </item>
            <item>
             <widget class="QPushButton" name="delinButton">
              <property name="sizePolicy">
               <sizepolicy hsizetype="Expanding" vsizetype="Fixed">
                <horstretch>0</horstretch>
                <verstretch>0</verstretch>
               </sizepolicy>
              </property>
              <property name="toolTip">
               <string>Click to select the DEM and delineate the watershed</string>
              </property>
              <property name="text">
               <string>Delineate Watershed</string>
              </property>
             </widget>
            </item>
            <item>
             <widget class="QPushButton" name="hrusButton">
              <property name="sizePolicy">
               <sizepolicy hsizetype="Expanding" vsizetype="Fixed">
                <horstretch>0</horstretch>
                <verstretch>0</verstretch>
               </sizepolicy>
              </property>
              <property name="toolTip">
               <string>Click to select landuse and soil files and create HRUs</string>
              </property>
              <property name="text">
               <string>Create HRUs</string>
              </property>
             </widget>
            </item>
            <item>
             <widget class="QPushButton" name="editButton">
              <property name="sizePolicy">
               <sizepolicy hsizetype="Expanding" vsizetype="Fixed">
                <horstretch>0</horstretch>
                <verstretch>0</verstretch>
               </sizepolicy>
              </property>
              <property name="toolTip">
               <string>Click to run the SWAT+ editor</string>
              </property>
              <property name="text">
               <string>Edit Inputs and Run SWAT+</string>
              </property>
             </widget>
            </item>
            <item>
             <widget class="QPushButton" name="visualiseButton">
              <property name="sizePolicy">
               <sizepolicy hsizetype="Expanding" vsizetype="Fixed">
                <horstretch>0</horstretch>
                <verstretch>0</verstretch>
               </sizepolicy>
              </property>
              <property name="toolTip">
               <string>Click to visualise outputs after a SWAT run</string>
              </property>
              <property name="text">
               <string>Visualise</string>
              </property>
             </widget>
            </item>
            <item>
             <widget class="QPushButton" name="callrswatButton">
              <property name="sizePolicy">
               <sizepolicy hsizetype="Expanding" vsizetype="Fixed">
                <horstretch>0</horstretch>
                <verstretch>0</verstretch>
               </sizepolicy>
              </property>
              <property name="toolTip">
               <string>Click to visualise outputs after a SWAT run</string>
              </property>
              <property name="text">
               <string>R-SWAT</string>
              </property>
             </widget>
            </item>
            <item>
             <widget class="QPushButton" name="mapsgenerateButton">
              <property name="sizePolicy">
               <sizepolicy hsizetype="Expanding" vsizetype="Fixed">
                <horstretch>0</horstretch>
                <verstretch>0</verstretch>
               </sizepolicy>
              </property>
              <property name="toolTip">
               <string>Click to visualise outputs after a SWAT run</string>
              </property>
              <property name="text">
               <string>Maps generate for reports</string>
              </property>
             </widget>
            </item>
           </layout>
          </item>
          <item>
           <layout class="QVBoxLayout" name="verticalLayout">
            <item>
             <widget class="QProgressBar" name="progressBar_01">
              <property name="value">
               <number>0</number>
              </property>
             </widget>
            </item>
            <item>
             <widget class="QProgressBar" name="progressBar_02">
              <property name="value">
               <number>0</number>
              </property>
             </widget>
            </item>
            <item>
             <widget class="QProgressBar" name="progressBar_03">
              <property name="value">
               <number>0</number>
              </property>
             </widget>
            </item>
            <item>
             <widget class="QProgressBar" name="progressBar_04">
              <property name="value">
               <number>0</number>
              </property>
             </widget>
            </item>
            <item>
             <widget class="QProgressBar" name="progressBar_05">
              <property name="value">
               <number>0</number>
              </property>
             </widget>
            </item>
            <item>
             <widget class="QProgressBar" name="progressBar_06">
              <property name="value">
               <number>0</number>
              </property>
             </widget>
            </item>
            <item>
             <widget class="QProgressBar" name="progressBar_07">
              <property name="value">
               <number>0</number>
              </property>
             </widget>
            </item>
            <item>
             <widget class="QProgressBar" name="progressBar_08">
              <property name="value">
               <number>0</number>
              </property>
             </widget>
            </item>
           </layout>
          </item>
          <item>
           <layout class="QVBoxLayout" name="verticalLayout_2">
            <item>
             <widget class="QLabel" name="label_3">
              <property name="text">
               <string>Hidro-climatic Module</string>
              </property>
             </widget>
            </item>
            <item>
             <widget class="QLabel" name="label_4">
              <property name="text">
               <string>Hidro-climatic Module</string>
              </property>
             </widget>
            </item>
            <item>
             <widget class="QLabel" name="label_5">
              <property name="text">
               <string>Pre-processing Module</string>
              </property>
             </widget>
            </item>
            <item>
             <widget class="QLabel" name="label_6">
              <property name="text">
               <string>Pre-processing Module</string>
              </property>
             </widget>
            </item>
            <item>
             <widget class="QLabel" name="label_7">
              <property name="text">
               <string>Setting and Executing Module</string>
              </property>
             </widget>
            </item>
            <item>
             <widget class="QLabel" name="label_10">
              <property name="text">
               <string>Post-Processing Module</string>
              </property>
             </widget>
            </item>
            <item>
             <widget class="QLabel" name="label_9">
              <property name="text">
               <string>Post-Processing Module</string>
              </property>
             </widget>
            </item>
            <item>
             <widget class="QLabel" name="label_8">
              <property name="text">
               <string>Post-Processing Module</string>
              </property>
             </widget>
            </item>
           </layout>
          </item>
         </layout>
        </item>
       </layout>
      </widget>
     </item>
     <item>
      <layout class="QHBoxLayout" name="horizontalLayout_4">
       <item>
        <layout class="QHBoxLayout" name="horizontalLayout_3">
         <item>
          <widget class="QLabel" name="label_11">
           <property name="text">
            <string>This is the path to the  project:</string>
           </property>
          </widget>
         </item>
         <item>
          <widget class="QLabel" name="projPath">
           <property name="styleSheet">
            <string notr="true">background-color: rgb(0, 255, 0);</string>
           </property>
           <property name="text">
            <string/>
           </property>
          </widget>
         </item>
        </layout>
       </item>
       <item>
        <widget class="QDialogButtonBox" name="buttonBox">
         <property name="orientation">
          <enum>Qt::Horizontal</enum>
         </property>
         <property name="standardButtons">
          <set>QDialogButtonBox::Cancel|QDialogButtonBox::Ok</set>
         </property>
        </widget>
       </item>
      </layout>
     </item>
     <item>
      <widget class="QPushButton" name="aboutButton">
       <property name="sizePolicy">
        <sizepolicy hsizetype="MinimumExpanding" vsizetype="Fixed">
         <horstretch>0</horstretch>
         <verstretch>0</verstretch>
        </sizepolicy>
       </property>
       <property name="text">
        <string>About</string>
       </property>
      </widget>
     </item>
     <item>
      <widget class="QWidget" name="widget" native="true">
       <layout class="QGridLayout" name="gridLayout_3">
        <item row="0" column="0">
         <widget class="QPushButton" name="paramsButton">
          <property name="sizePolicy">
           <sizepolicy hsizetype="Preferred" vsizetype="Fixed">
            <horstretch>0</horstretch>
            <verstretch>0</verstretch>
           </sizepolicy>
          </property>
          <property name="toolTip">
           <string>&lt;html&gt;&lt;head/&gt;&lt;body&gt;&lt;p&gt;Click to set the location of the SWATPlusr and (optionally) MPI.  Unless these locations change, you only need to do this once; the values are used for all projects.&lt;/p&gt;&lt;p&gt;&lt;br/&gt;&lt;/p&gt;&lt;p&gt;A number of other parameters may be set here, which are project specific.&lt;/p&gt;&lt;/body&gt;&lt;/html&gt;</string>
          </property>
          <property name="text">
           <string>QSWAT+ Parameters</string>
          </property>
         </widget>
        </item>
        <item row="1" column="0">
         <widget class="QPushButton" name="exportButton">
          <property name="sizePolicy">
           <sizepolicy hsizetype="Preferred" vsizetype="Fixed">
            <horstretch>0</horstretch>
            <verstretch>0</verstretch>
           </sizepolicy>
          </property>
          <property name="toolTip">
           <string>&lt;html&gt;&lt;head/&gt;&lt;body&gt;&lt;p&gt;Export SQLite database table to a csv file.&lt;/p&gt;&lt;/body&gt;&lt;/html&gt;</string>
          </property>
          <property name="text">
           <string>Export Table</string>
          </property>
         </widget>
        </item>
        <item row="2" column="0">
         <widget class="QLabel" name="reportsLabel">
          <property name="text">
           <string>Reports</string>
          </property>
         </widget>
        </item>
        <item row="3" column="0">
         <widget class="QComboBox" name="reportsBox">
          <property name="sizePolicy">
           <sizepolicy hsizetype="Preferred" vsizetype="Fixed">
            <horstretch>0</horstretch>
            <verstretch>0</verstretch>
           </sizepolicy>
          </property>
          <property name="duplicatesEnabled">
           <bool>false</bool>
          </property>
         </widget>
        </item>
       </layout>
      </widget>
     </item>
    </layout>
   </item>
  </layout>
 </widget>
 <resources>
  <include location="resources.qrc"/>
 </resources>
 <connections>
  <connection>
   <sender>buttonBox</sender>
   <signal>accepted()</signal>
   <receiver>QSwat</receiver>
   <slot>accept()</slot>
   <hints>
    <hint type="sourcelabel">
     <x>248</x>
     <y>254</y>
    </hint>
    <hint type="destinationlabel">
     <x>157</x>
     <y>274</y>
    </hint>
   </hints>
  </connection>
  <connection>
   <sender>buttonBox</sender>
   <signal>rejected()</signal>
   <receiver>QSwat</receiver>
   <slot>reject()</slot>
   <hints>
    <hint type="sourcelabel">
     <x>316</x>
     <y>260</y>
    </hint>
    <hint type="destinationlabel">
     <x>286</x>
     <y>274</y>
    </hint>
   </hints>
  </connection>
 </connections>
</ui>
