<?xml version="1.0" encoding="UTF-8"?>
<ui version="4.0">
 <class>DelineationDialog</class>
 <widget class="QDialog" name="DelineationDialog">
  <property name="geometry">
   <rect>
    <x>0</x>
    <y>0</y>
    <width>1053</width>
    <height>609</height>
   </rect>
  </property>
  <property name="sizePolicy">
   <sizepolicy hsizetype="Preferred" vsizetype="Minimum">
    <horstretch>0</horstretch>
    <verstretch>0</verstretch>
   </sizepolicy>
  </property>
  <property name="windowTitle">
   <string>Delineate Watershed</string>
  </property>
  <property name="windowIcon">
   <iconset resource="resources.qrc">
    <normaloff>:/plugins/QSWATPlus/swatplus.ico</normaloff>:/plugins/QSWATPlus/swatplus.ico</iconset>
  </property>
  <property name="styleSheet">
   <string notr="true">QDialog {
    background-color: #f2f2f2;
    font-family: Helvetica, Arial, sans-serif;
    font-size: 13px;
}

QPushButton {
    background-color: #ffffff;
    border: 1px solid #cccccc;
    border-radius: 6px;
    padding: 6px 12px;
}

QPushButton:hover {
    background-color: #e6e6e6;
}

QLineEdit, QSpinBox, QComboBox {
    background-color: #ffffff;
    border: 1px solid #cccccc;
    border-radius: 4px;
    padding: 4px;
}

QCheckBox {
    padding: 2px;
}

QGroupBox {
    border: 1px solid #cccccc;
    border-radius: 6px;
    margin-top: 10px;
}

QGroupBox::title {
    subcontrol-origin: margin;
    subcontrol-position: top center;
    padding: 0 3px;
}
</string>
  </property>
  <property name="sizeGripEnabled">
   <bool>false</bool>
  </property>
  <layout class="QGridLayout" name="gridLayout_14">
   <item row="3" column="1">
    <widget class="QLabel" name="numProcessesLabel">
     <property name="sizePolicy">
      <sizepolicy hsizetype="Preferred" vsizetype="Fixed">
       <horstretch>0</horstretch>
       <verstretch>0</verstretch>
      </sizepolicy>
     </property>
     <property name="toolTip">
      <string>Number of processes mpiexec should use.  0 means do not use mpiexec.</string>
     </property>
     <property name="text">
      <string>Parallel Processes</string>
     </property>
     <property name="alignment">
      <set>Qt::AlignLeading|Qt::AlignLeft|Qt::AlignVCenter</set>
     </property>
     <property name="wordWrap">
      <bool>true</bool>
     </property>
    </widget>
   </item>
   <item row="0" column="0" colspan="5">
    <widget class="QGroupBox" name="demGroup">
     <property name="title">
      <string>Select Digital Elevation Model (DEM)</string>
     </property>
     <layout class="QGridLayout" name="gridLayout">
      <item row="0" column="1">
       <widget class="QPushButton" name="selectDemButton">
        <property name="sizePolicy">
         <sizepolicy hsizetype="Fixed" vsizetype="Fixed">
          <horstretch>0</horstretch>
          <verstretch>0</verstretch>
         </sizepolicy>
        </property>
        <property name="toolTip">
         <string>The digital elevation map, or DEM, is the basis for watershed delineation.  Click this button to select a DEM file.</string>
        </property>
        <property name="text">
         <string>Select</string>
        </property>
       </widget>
      </item>
      <item row="0" column="0">
       <widget class="QLineEdit" name="selectDem">
        <property name="sizePolicy">
         <sizepolicy hsizetype="Preferred" vsizetype="Fixed">
          <horstretch>0</horstretch>
          <verstretch>0</verstretch>
         </sizepolicy>
        </property>
       </widget>
      </item>
     </layout>
    </widget>
   </item>
   <item row="3" column="4">
    <widget class="QWidget" name="horizontalWidget" native="true">
     <layout class="QGridLayout" name="gridLayout_8">
      <item row="0" column="0">
       <widget class="QPushButton" name="OKButton">
        <property name="sizePolicy">
         <sizepolicy hsizetype="Minimum" vsizetype="Fixed">
          <horstretch>0</horstretch>
          <verstretch>0</verstretch>
         </sizepolicy>
        </property>
        <property name="text">
         <string>OK</string>
        </property>
       </widget>
      </item>
      <item row="0" column="1">
       <widget class="QPushButton" name="cancelButton">
        <property name="sizePolicy">
         <sizepolicy hsizetype="Minimum" vsizetype="Fixed">
          <horstretch>0</horstretch>
          <verstretch>0</verstretch>
         </sizepolicy>
        </property>
        <property name="text">
         <string>Cancel</string>
        </property>
        <property name="autoDefault">
         <bool>false</bool>
        </property>
       </widget>
      </item>
     </layout>
    </widget>
   </item>
   <item row="1" column="0" colspan="5">
    <widget class="QTabWidget" name="tabWidget">
     <property name="toolTip">
      <string notr="true"/>
     </property>
     <property name="currentIndex">
      <number>0</number>
     </property>
     <widget class="QWidget" name="delinTab">
      <attribute name="title">
       <string>Delineate Watershed Boundary</string>
      </attribute>
      <layout class="QGridLayout" name="gridLayout_4">
       <item row="2" column="0" colspan="4">
        <widget class="QWidget" name="thresholdWidget" native="true">
         <layout class="QGridLayout" name="gridLayout_10">
          <item row="0" column="0">
           <widget class="QLabel" name="thresholdLabelCh">
            <property name="toolTip">
             <string>&lt;html&gt;&lt;head/&gt;&lt;body&gt;&lt;p&gt;The threshold number of cells is the minimum number required to form a channel at a leaf of the channel network.&lt;/p&gt;&lt;/body&gt;&lt;/html&gt;</string>
            </property>
            <property name="text">
             <string>Channel Initiation Threshold</string>
            </property>
           </widget>
          </item>
          <item row="0" column="1">
           <widget class="QLineEdit" name="numCellsCh">
            <property name="sizePolicy">
             <sizepolicy hsizetype="Preferred" vsizetype="Fixed">
              <horstretch>0</horstretch>
              <verstretch>0</verstretch>
             </sizepolicy>
            </property>
            <property name="minimumSize">
             <size>
              <width>50</width>
              <height>20</height>
             </size>
            </property>
            <property name="toolTip">
             <string>&lt;html&gt;&lt;head/&gt;&lt;body&gt;&lt;p&gt;The minimum number of cells required to create a channel as a leaf of the channel network&lt;/p&gt;&lt;/body&gt;&lt;/html&gt;</string>
            </property>
           </widget>
          </item>
          <item row="0" column="2">
           <widget class="QLabel" name="numCellsLabelCh">
            <property name="sizePolicy">
             <sizepolicy hsizetype="Preferred" vsizetype="Fixed">
              <horstretch>0</horstretch>
              <verstretch>0</verstretch>
             </sizepolicy>
            </property>
            <property name="toolTip">
             <string>The threshold number of cells is the minimum number required to form a stream at a leaf of the stream network.</string>
            </property>
            <property name="text">
             <string>Cells</string>
            </property>
           </widget>
          </item>
          <item row="0" column="3">
           <widget class="QLineEdit" name="areaCh">
            <property name="sizePolicy">
             <sizepolicy hsizetype="Preferred" vsizetype="Fixed">
              <horstretch>0</horstretch>
              <verstretch>0</verstretch>
             </sizepolicy>
            </property>
            <property name="minimumSize">
             <size>
              <width>50</width>
              <height>20</height>
             </size>
            </property>
            <property name="toolTip">
             <string>&lt;html&gt;&lt;head/&gt;&lt;body&gt;&lt;p&gt;The minimum area required to create a channel as a leaf of the channel network&lt;/p&gt;&lt;/body&gt;&lt;/html&gt;</string>
            </property>
           </widget>
          </item>
          <item row="0" column="4">
           <widget class="QLabel" name="areaLabelCh">
            <property name="sizePolicy">
             <sizepolicy hsizetype="Preferred" vsizetype="Fixed">
              <horstretch>0</horstretch>
              <verstretch>0</verstretch>
             </sizepolicy>
            </property>
            <property name="text">
             <string>Area</string>
            </property>
           </widget>
          </item>
          <item row="0" column="5" rowspan="2">
           <widget class="QComboBox" name="areaUnitsBox">
            <property name="sizePolicy">
             <sizepolicy hsizetype="Preferred" vsizetype="Fixed">
              <horstretch>0</horstretch>
              <verstretch>0</verstretch>
             </sizepolicy>
            </property>
           </widget>
          </item>
          <item row="1" column="1">
           <widget class="QLineEdit" name="numCellsSt">
            <property name="sizePolicy">
             <sizepolicy hsizetype="Preferred" vsizetype="Fixed">
              <horstretch>0</horstretch>
              <verstretch>0</verstretch>
             </sizepolicy>
            </property>
            <property name="minimumSize">
             <size>
              <width>50</width>
              <height>20</height>
             </size>
            </property>
            <property name="toolTip">
             <string>&lt;html&gt;&lt;head/&gt;&lt;body&gt;&lt;p&gt;The threshold number of cells is the minimum number required to form a stream (and hence a subbasin) at a leaf of the stream network.&lt;/p&gt;&lt;/body&gt;&lt;/html&gt;</string>
            </property>
           </widget>
          </item>
          <item row="1" column="2">
           <widget class="QLabel" name="numCellsLabelSt">
            <property name="sizePolicy">
             <sizepolicy hsizetype="Preferred" vsizetype="Fixed">
              <horstretch>0</horstretch>
              <verstretch>0</verstretch>
             </sizepolicy>
            </property>
            <property name="toolTip">
             <string>The threshold number of cells is the minimum number required to form a stream at a leaf of the stream network.</string>
            </property>
            <property name="text">
             <string>Cells</string>
            </property>
           </widget>
          </item>
          <item row="1" column="3">
           <widget class="QLineEdit" name="areaSt">
            <property name="sizePolicy">
             <sizepolicy hsizetype="Preferred" vsizetype="Fixed">
              <horstretch>0</horstretch>
              <verstretch>0</verstretch>
             </sizepolicy>
            </property>
            <property name="minimumSize">
             <size>
              <width>50</width>
              <height>20</height>
             </size>
            </property>
            <property name="toolTip">
             <string>&lt;html&gt;&lt;head/&gt;&lt;body&gt;&lt;p&gt;The minimum area required to create a stream (and hence a subbasin) as a leaf of the stream network&lt;/p&gt;&lt;/body&gt;&lt;/html&gt;</string>
            </property>
           </widget>
          </item>
          <item row="1" column="4">
           <widget class="QLabel" name="areaLabelSt">
            <property name="sizePolicy">
             <sizepolicy hsizetype="Preferred" vsizetype="Fixed">
              <horstretch>0</horstretch>
              <verstretch>0</verstretch>
             </sizepolicy>
            </property>
            <property name="text">
             <string>Area</string>
            </property>
           </widget>
          </item>
          <item row="1" column="0">
           <widget class="QLabel" name="thresholdLabelSt">
            <property name="toolTip">
             <string>&lt;html&gt;&lt;head/&gt;&lt;body&gt;&lt;p&gt;The threshold number of cells is the minimum number required to form a stream (and hence a subbasin) at a leaf of the stream network.&lt;/p&gt;&lt;/body&gt;&lt;/html&gt;</string>
            </property>
            <property name="text">
             <string>Stream Definition Threshold</string>
            </property>
           </widget>
          </item>
         </layout>
        </widget>
       </item>
       <item row="0" column="0" colspan="3">
        <widget class="QCheckBox" name="checkBurn">
         <property name="sizePolicy">
          <sizepolicy hsizetype="Minimum" vsizetype="Fixed">
           <horstretch>0</horstretch>
           <verstretch>0</verstretch>
          </sizepolicy>
         </property>
         <property name="toolTip">
          <string>An existing stream network may be burnt in to make delineation more accurate, particularly in flat areas</string>
         </property>
         <property name="text">
          <string>Incorporate Existing Stream Network (Burn-in)</string>
         </property>
        </widget>
       </item>
       <item row="2" column="4" colspan="2">
        <widget class="QPushButton" name="delinRunButton1">
         <property name="sizePolicy">
          <sizepolicy hsizetype="Preferred" vsizetype="Fixed">
           <horstretch>0</horstretch>
           <verstretch>0</verstretch>
          </sizepolicy>
         </property>
         <property name="toolTip">
          <string>Create streams first if you want to place inlets/outlets interactively.</string>
         </property>
         <property name="text">
          <string>Create streams</string>
         </property>
        </widget>
       </item>
       <item row="3" column="0" colspan="3">
        <widget class="QCheckBox" name="useOutlets">
         <property name="toolTip">
          <string>The inlets outlets file defines inlets, outlets, reservoirs and point sources.  It must contain at least one outlet.</string>
         </property>
         <property name="text">
          <string>Use Shapefile for Inlets/Outlets</string>
         </property>
         <property name="checked">
          <bool>true</bool>
         </property>
        </widget>
       </item>
       <item row="6" column="4" colspan="2">
        <widget class="QPushButton" name="delinRunButton2">
         <property name="sizePolicy">
          <sizepolicy hsizetype="Preferred" vsizetype="Fixed">
           <horstretch>0</horstretch>
           <verstretch>0</verstretch>
          </sizepolicy>
         </property>
         <property name="minimumSize">
          <size>
           <width>120</width>
           <height>0</height>
          </size>
         </property>
         <property name="toolTip">
          <string>Create the streams and the watershed and subbasin boundaries.</string>
         </property>
         <property name="text">
          <string>Generate Watershed</string>
         </property>
        </widget>
       </item>
       <item row="4" column="0" colspan="5">
        <widget class="QLineEdit" name="selectOutlets">
         <property name="sizePolicy">
          <sizepolicy hsizetype="Preferred" vsizetype="Fixed">
           <horstretch>0</horstretch>
           <verstretch>0</verstretch>
          </sizepolicy>
         </property>
        </widget>
       </item>
       <item row="5" column="0" colspan="5">
        <widget class="QWidget" name="outletsWidget" native="true">
         <property name="enabled">
          <bool>true</bool>
         </property>
         <layout class="QGridLayout" name="gridLayout_3">
          <item row="0" column="0">
           <widget class="QPushButton" name="drawOutletsButton">
            <property name="sizePolicy">
             <sizepolicy hsizetype="Minimum" vsizetype="Fixed">
              <horstretch>0</horstretch>
              <verstretch>0</verstretch>
             </sizepolicy>
            </property>
            <property name="minimumSize">
             <size>
              <width>0</width>
              <height>0</height>
             </size>
            </property>
            <property name="toolTip">
             <string>Place inlets, outlets, reservoirs, and point sources by clicking on the stream network.</string>
            </property>
            <property name="text">
             <string>Draw Inlets/Outlets on Map</string>
            </property>
           </widget>
          </item>
          <item row="0" column="1">
           <widget class="QPushButton" name="selectOutletsInteractiveButton">
            <property name="sizePolicy">
             <sizepolicy hsizetype="Minimum" vsizetype="Fixed">
              <horstretch>0</horstretch>
              <verstretch>0</verstretch>
             </sizepolicy>
            </property>
            <property name="toolTip">
             <string>Interactively select which inlets, outlets, reservoirs and point sources to use. You only need to do this if you want to use only a subset of what is in the shapefile. The default is to use all the points in the shapefile.</string>
            </property>
            <property name="text">
             <string>Select Inlets/Outlets from Layer</string>
            </property>
           </widget>
          </item>
          <item row="0" column="2">
           <widget class="QLabel" name="selectOutletsInteractiveLabel">
            <property name="minimumSize">
             <size>
              <width>111</width>
              <height>0</height>
             </size>
            </property>
            <property name="toolTip">
             <string>The number of points in the inlets/outlets shapefile that will be used.</string>
            </property>
            <property name="text">
             <string/>
            </property>
           </widget>
          </item>
          <item row="1" column="0" colspan="2">
           <widget class="QLabel" name="snapThresholdLabel">
            <property name="sizePolicy">
             <sizepolicy hsizetype="Preferred" vsizetype="Fixed">
              <horstretch>0</horstretch>
              <verstretch>0</verstretch>
             </sizepolicy>
            </property>
            <property name="minimumSize">
             <size>
              <width>0</width>
              <height>13</height>
             </size>
            </property>
            <property name="text">
             <string>Snapping Tolerance (meters)</string>
            </property>
           </widget>
          </item>
          <item row="2" column="0">
           <widget class="QLineEdit" name="snapThreshold">
            <property name="sizePolicy">
             <sizepolicy hsizetype="Minimum" vsizetype="Fixed">
              <horstretch>0</horstretch>
              <verstretch>0</verstretch>
             </sizepolicy>
            </property>
            <property name="minimumSize">
             <size>
              <width>0</width>
              <height>0</height>
             </size>
            </property>
            <property name="toolTip">
             <string>The maximum distance a point may be moved to place it on the stream network (snapped).  Points which would require more than this distance will not be used.</string>
            </property>
           </widget>
          </item>
          <item row="2" column="1">
           <widget class="QPushButton" name="snapReviewButton">
            <property name="sizePolicy">
             <sizepolicy hsizetype="Minimum" vsizetype="Fixed">
              <horstretch>0</horstretch>
              <verstretch>0</verstretch>
             </sizepolicy>
            </property>
            <property name="toolTip">
             <string>Optionally, click to load and view the snapped inlets/outlets layer. The snapped points will be used whether you load them or not.</string>
            </property>
            <property name="text">
             <string>Review Snapped Points</string>
            </property>
           </widget>
          </item>
          <item row="2" column="2">
           <widget class="QLabel" name="snappedLabel">
            <property name="minimumSize">
             <size>
              <width>111</width>
              <height>0</height>
             </size>
            </property>
            <property name="toolTip">
             <string>The number of points successfully snapped to the stream network.</string>
            </property>
            <property name="text">
             <string/>
            </property>
           </widget>
          </item>
         </layout>
        </widget>
       </item>
       <item row="1" column="0" colspan="5">
        <widget class="QLineEdit" name="selectBurn">
         <property name="enabled">
          <bool>false</bool>
         </property>
        </widget>
       </item>
       <item row="6" column="3">
        <spacer name="horizontalSpacer_4">
         <property name="orientation">
          <enum>Qt::Horizontal</enum>
         </property>
         <property name="sizeHint" stdset="0">
          <size>
           <width>425</width>
           <height>20</height>
          </size>
         </property>
        </spacer>
       </item>
       <item row="6" column="0">
        <widget class="QCheckBox" name="gridBox">
         <property name="sizePolicy">
          <sizepolicy hsizetype="Minimum" vsizetype="Fixed">
           <horstretch>0</horstretch>
           <verstretch>0</verstretch>
          </sizepolicy>
         </property>
         <property name="toolTip">
          <string>This option creates a grid of squares covering your watershed (running TauDEM first to create it)  The squares replace the subbasins originally created by TauDEM.</string>
         </property>
         <property name="text">
          <string>Generate Grid Layer</string>
         </property>
        </widget>
       </item>
       <item row="6" column="1">
        <widget class="QSpinBox" name="gridSize">
         <property name="sizePolicy">
          <sizepolicy hsizetype="Minimum" vsizetype="Fixed">
           <horstretch>0</horstretch>
           <verstretch>0</verstretch>
          </sizepolicy>
         </property>
         <property name="minimumSize">
          <size>
           <width>0</width>
           <height>20</height>
          </size>
         </property>
         <property name="toolTip">
          <string>Set the size of each side of the grid squares in terms of a number of DEM cells.</string>
         </property>
         <property name="minimum">
          <number>1</number>
         </property>
        </widget>
       </item>
       <item row="6" column="2">
        <widget class="QLabel" name="gridSizeLabel">
         <property name="sizePolicy">
          <sizepolicy hsizetype="Preferred" vsizetype="Minimum">
           <horstretch>0</horstretch>
           <verstretch>0</verstretch>
          </sizepolicy>
         </property>
         <property name="text">
          <string>Grid Cell Size</string>
         </property>
        </widget>
       </item>
       <item row="5" column="5">
        <spacer name="verticalSpacer">
         <property name="orientation">
          <enum>Qt::Vertical</enum>
         </property>
         <property name="sizeHint" stdset="0">
          <size>
           <width>20</width>
           <height>85</height>
          </size>
         </property>
        </spacer>
       </item>
       <item row="1" column="5">
        <widget class="QPushButton" name="burnButton">
         <property name="enabled">
          <bool>false</bool>
         </property>
         <property name="sizePolicy">
          <sizepolicy hsizetype="Fixed" vsizetype="Fixed">
           <horstretch>0</horstretch>
           <verstretch>0</verstretch>
          </sizepolicy>
         </property>
         <property name="toolTip">
          <string>An existing stream network may be burnt in to make delineation more accurate, particularly in flat areas.  Click this button to select a streams file for burning in.</string>
         </property>
         <property name="text">
          <string>Select</string>
         </property>
        </widget>
       </item>
       <item row="4" column="5">
        <widget class="QPushButton" name="selectOutletsButton">
         <property name="sizePolicy">
          <sizepolicy hsizetype="Fixed" vsizetype="Fixed">
           <horstretch>0</horstretch>
           <verstretch>0</verstretch>
          </sizepolicy>
         </property>
         <property name="toolTip">
          <string>The inlets outlets file defines inlets, outlets, reservoirs and point sources.  It must contain at least one outlet.  Click this button to select an inlets/outlets shapefile.</string>
         </property>
         <property name="text">
          <string>Select</string>
         </property>
        </widget>
       </item>
      </layout>
      <zorder>thresholdWidget</zorder>
      <zorder>checkBurn</zorder>
      <zorder>delinRunButton1</zorder>
      <zorder>useOutlets</zorder>
      <zorder>delinRunButton2</zorder>
      <zorder>selectOutlets</zorder>
      <zorder>outletsWidget</zorder>
      <zorder>selectBurn</zorder>
      <zorder>horizontalSpacer_4</zorder>
      <zorder>gridBox</zorder>
      <zorder>gridSize</zorder>
      <zorder>gridSizeLabel</zorder>
      <zorder>verticalSpacer</zorder>
      <zorder>burnButton</zorder>
      <zorder>selectOutletsButton</zorder>
     </widget>
    </widget>
   </item>
   <item row="3" column="0">
    <widget class="QSpinBox" name="numProcesses">
     <property name="sizePolicy">
      <sizepolicy hsizetype="Minimum" vsizetype="Fixed">
       <horstretch>0</horstretch>
       <verstretch>0</verstretch>
      </sizepolicy>
     </property>
     <property name="minimumSize">
      <size>
       <width>0</width>
       <height>20</height>
      </size>
     </property>
     <property name="toolTip">
      <string>Number of processes mpiexec should use.  0 means do not use mpiexec.</string>
     </property>
    </widget>
   </item>
   <item row="3" column="2">
    <widget class="QCheckBox" name="showTaudem">
     <property name="sizePolicy">
      <sizepolicy hsizetype="Minimum" vsizetype="Fixed">
       <horstretch>0</horstretch>
       <verstretch>0</verstretch>
      </sizepolicy>
     </property>
     <property name="text">
      <string>Display Taudem Command Output</string>
     </property>
    </widget>
   </item>
   <item row="3" column="3">
    <widget class="QLabel" name="progressLabel">
     <property name="sizePolicy">
      <sizepolicy hsizetype="Expanding" vsizetype="Fixed">
       <horstretch>0</horstretch>
       <verstretch>0</verstretch>
      </sizepolicy>
     </property>
     <property name="text">
      <string/>
     </property>
     <property name="wordWrap">
      <bool>true</bool>
     </property>
    </widget>
   </item>
   <item row="2" column="0" colspan="5">
    <widget class="QTabWidget" name="tabWidget_2">
     <property name="currentIndex">
      <number>0</number>
     </property>
     <widget class="QWidget" name="landscapeTab">
      <attribute name="title">
       <string>Generate Landscape Units</string>
      </attribute>
      <layout class="QGridLayout" name="gridLayout_15">
       <item row="0" column="0">
        <widget class="QGroupBox" name="landscapeGroup">
         <property name="title">
          <string>Create landscape</string>
         </property>
         <layout class="QGridLayout" name="gridLayout_2">
          <item row="0" column="0">
           <spacer name="horizontalSpacer_7">
            <property name="orientation">
             <enum>Qt::Horizontal</enum>
            </property>
            <property name="sizeHint" stdset="0">
             <size>
              <width>518</width>
              <height>20</height>
             </size>
            </property>
           </spacer>
          </item>
          <item row="0" column="1">
           <widget class="QPushButton" name="landscapeButton">
            <property name="sizePolicy">
             <sizepolicy hsizetype="Preferred" vsizetype="Fixed">
              <horstretch>0</horstretch>
              <verstretch>0</verstretch>
             </sizepolicy>
            </property>
            <property name="minimumSize">
             <size>
              <width>0</width>
              <height>0</height>
             </size>
            </property>
            <property name="toolTip">
             <string>Create landscape units, which will subdivide each subbasin into floodplain and upslope areas.</string>
            </property>
            <property name="text">
             <string>Create</string>
            </property>
           </widget>
          </item>
         </layout>
        </widget>
       </item>
      </layout>
     </widget>
    </widget>
   </item>
  </layout>
 </widget>
 <resources>
  <include location="resources.qrc"/>
 </resources>
 <connections/>
</ui>
