hmd.cli: Relative humidity file names - file written by SWAT+ editor 2019-07-09 17:30:25.791398
filename
robrhum.hmd
