pcp.cli: Precipitation file names - file written by SWAT+ editor 2019-07-09 17:30:25.915029
filename
robpcp.pcp
