slr.cli: Solar radiation file names - file written by SWAT+ editor 2019-07-09 17:30:26.060643
filename
robsol.slr
