tmp.cli: Temperature file names - file written by SWAT+ editor 2019-07-09 17:30:26.205253
filename
robtmp.tmp
