wnd.cli: Wind speed file names - file written by SWAT+ editor 2019-07-09 17:30:26.382781
filename
robwind.wnd
